
     RDKit          3D

 17 17  0  0  0  0  0  0  0  0999 V2000
   -2.6333    0.2473    0.8115 C   0  0  0  0  0  0  0  0  0  0  0  0
   -1.7159   -0.6799    0.0580 C   0  0  0  0  0  0  0  0  0  0  0  0
   -2.1313   -1.7315   -0.4244 O   0  0  0  0  0  0  0  0  0  0  0  0
   -0.2783   -0.3060   -0.1001 C   0  0  0  0  0  0  0  0  0  0  0  0
    0.2490    0.8793    0.4286 C   0  0  0  0  0  0  0  0  0  0  0  0
    1.6032    1.1853    0.2537 C   0  0  0  0  0  0  0  0  0  0  0  0
    2.4297    0.3089   -0.4481 C   0  0  0  0  0  0  0  0  0  0  0  0
    4.2578    0.7275   -0.6811 Br  0  0  0  0  0  0  0  0  0  0  0  0
    1.9170   -0.8725   -0.9784 C   0  0  0  0  0  0  0  0  0  0  0  0
    0.5647   -1.1787   -0.8041 C   0  0  0  0  0  0  0  0  0  0  0  0
   -2.6868    1.2173    0.3105 H   0  0  0  0  0  0  0  0  0  0  0  0
   -3.6407   -0.1806    0.8294 H   0  0  0  0  0  0  0  0  0  0  0  0
   -2.2947    0.3585    1.8447 H   0  0  0  0  0  0  0  0  0  0  0  0
   -0.3688    1.5822    0.9800 H   0  0  0  0  0  0  0  0  0  0  0  0
    2.0025    2.1080    0.6682 H   0  0  0  0  0  0  0  0  0  0  0  0
    2.5554   -1.5606   -1.5267 H   0  0  0  0  0  0  0  0  0  0  0  0
    0.1707   -2.1043   -1.2216 H   0  0  0  0  0  0  0  0  0  0  0  0
  1  2  1  0
  2  3  2  0
  2  4  1  0
  4  5  1  0
  5  6  2  0
  6  7  1  0
  7  8  1  0
  7  9  2  0
  9 10  1  0
 10  4  2  0
  1 11  1  0
  1 12  1  0
  1 13  1  0
  5 14  1  0
  6 15  1  0
  9 16  1  0
 10 17  1  0
M  END
